/*--------------------------------*- C++ -*----------------------------------*\
  =========                 |
  \\      /  F ield         | OpenFOAM: The Open Source CFD Toolbox
   \\    /   O peration     | Website:  https://openfoam.org
    \\  /    A nd           | Version:  10
     \\/     M anipulation  |
\*---------------------------------------------------------------------------*/
FoamFile
{
    format      ascii;
    class       extendedFeatureEdgeMesh;
    location    "constant/extendedFeatureEdgeMesh";
    object      propeller.extendedFeatureEdgeMesh;
}
// * * * * * * * * * * * * * * * * * * * * * * * * * * * * * * * * * * * * * //

// points

80
(
(0 -0.129904 0.025)
(0 0.129904 0.175)
(3.5 0.0399519 0.180801)
(3.5 -0.0899519 0.105801)
(5 -0.082476 0.167853)
(5 -0.0175241 0.205353)
(0 0.139904 0.15768)
(0 -0.119904 0.00767948)
(3.5 0.0499519 0.163481)
(3.5 -0.0799519 0.0884808)
(5 -0.072476 0.150532)
(5 -0.00752406 0.188032)
(0.129904 5.67828e-09 0.025)
(-0.129904 -5.67828e-09 0.175)
(-0.0399521 3.5 0.180801)
(0.0899518 3.5 0.105801)
(0.0824757 5 0.167853)
(0.0175238 5 0.205353)
(-0.139904 -6.11539e-09 0.15768)
(0.119904 5.24116e-09 0.00767948)
(-0.0499521 3.5 0.163481)
(0.0799517 3.5 0.0884808)
(0.0724757 5 0.150532)
(0.00752384 5 0.188032)
(-1.13566e-08 0.129904 0.025)
(1.13566e-08 -0.129904 0.175)
(-3.5 -0.0399522 0.180801)
(-3.5 0.0899516 0.105801)
(-5 0.0824755 0.167853)
(-5 0.0175236 0.205353)
(1.22308e-08 -0.139904 0.15768)
(-1.04823e-08 0.119904 0.00767948)
(-3.5 -0.0499522 0.163481)
(-3.5 0.0799516 0.0884808)
(-5 0.0724755 0.150532)
(-5 0.00752362 0.188032)
(-0.129904 -1.54909e-09 0.025)
(0.129904 1.54909e-09 0.175)
(0.0399519 -3.5 0.180801)
(-0.0899519 -3.5 0.105801)
(-0.0824759 -5 0.167853)
(-0.017524 -5 0.205353)
(0.139904 1.66834e-09 0.15768)
(-0.119904 -1.42984e-09 0.00767948)
(0.0499519 -3.5 0.163481)
(-0.0799519 -3.5 0.0884808)
(-0.0724759 -5 0.150532)
(-0.007524 -5 0.188032)
(0.0390181 0.196157 0)
(0 0.2 0)
(0.0765367 0.184776 0)
(0.111114 0.166294 0)
(0.141421 0.141421 0)
(0.166294 0.111114 0)
(0.184776 0.0765367 0)
(0.196157 0.0390181 0)
(0.2 0 0)
(0.196157 -0.0390181 0)
(0.184776 -0.0765367 0)
(0.166294 -0.111114 0)
(0.141421 -0.141421 0)
(0.111114 -0.166294 0)
(0.0765367 -0.184776 0)
(0.0390181 -0.196157 0)
(0 -0.2 0)
(-0.0390181 -0.196157 0)
(-0.0765367 -0.184776 0)
(-0.111114 -0.166294 0)
(-0.141421 -0.141421 0)
(-0.166294 -0.111114 0)
(-0.184776 -0.0765367 0)
(-0.196157 -0.0390181 0)
(-0.2 0 0)
(-0.196157 0.0390181 0)
(-0.184776 0.0765367 0)
(-0.166294 0.111114 0)
(-0.141421 0.141421 0)
(-0.111114 0.166294 0)
(-0.0765367 0.184776 0)
(-0.0390181 0.196157 0)
)

// edges

116
(
(48 49)
(50 48)
(51 50)
(52 51)
(53 52)
(54 53)
(55 54)
(56 55)
(57 56)
(58 57)
(59 58)
(60 59)
(61 60)
(62 61)
(63 62)
(64 63)
(65 64)
(66 65)
(67 66)
(68 67)
(69 68)
(70 69)
(71 70)
(72 71)
(73 72)
(74 73)
(75 74)
(76 75)
(77 76)
(78 77)
(79 49)
(78 79)
(2 3)
(4 5)
(1 6)
(6 7)
(7 0)
(14 15)
(16 17)
(13 18)
(18 19)
(19 12)
(26 27)
(28 29)
(25 30)
(30 31)
(31 24)
(38 39)
(40 41)
(37 42)
(42 43)
(43 36)
(0 1)
(1 2)
(3 0)
(10 11)
(12 13)
(13 14)
(15 12)
(22 23)
(24 25)
(25 26)
(27 24)
(34 35)
(36 37)
(37 38)
(39 36)
(46 47)
(3 4)
(5 2)
(8 7)
(6 9)
(9 10)
(11 8)
(4 10)
(11 5)
(3 9)
(9 7)
(2 8)
(15 16)
(17 14)
(20 19)
(18 21)
(21 22)
(23 20)
(16 22)
(23 17)
(15 21)
(21 19)
(14 20)
(27 28)
(29 26)
(32 31)
(30 33)
(33 34)
(35 32)
(28 34)
(35 29)
(27 33)
(33 31)
(26 32)
(39 40)
(41 38)
(44 43)
(42 45)
(45 46)
(47 44)
(40 46)
(47 41)
(39 45)
(45 43)
(38 44)
(6 8)
(18 20)
(30 32)
(42 44)
)

// concaveStart mixedStart nonFeatureStart
0 0 48
// internalStart flatStart openStart multipleStart
52 68 68 112
// normals

112
(
(0.0142843 0.499949 -0.865937)
(0.0214237 0.865826 0.499886)
(-0.0142843 -0.499949 0.865937)
(-0.499949 0.0142842 -0.865937)
(-0.865826 0.0214236 0.499886)
(0.499949 -0.0142842 0.865937)
(-0.0142842 -0.499949 -0.865937)
(-0.0214236 -0.865826 0.499886)
(0.0142842 0.499949 0.865937)
(0.499949 -0.0142842 -0.865937)
(0.865826 -0.0214236 0.499886)
(-0.499949 0.0142842 0.865937)
(-0.0333148 -0.499723 0.865545)
(-0.0333148 -0.499723 0.865545)
(-0.0333148 -0.499722 0.865545)
(-0.0333148 -0.499723 0.865545)
(1 0 0)
(1 0 0)
(-0.0214237 0.865826 0.499886)
(-0.0214237 0.865827 0.499885)
(0.0214237 0.865827 0.499885)
(0.499723 -0.0333148 0.865545)
(0.499723 -0.0333148 0.865545)
(0.499722 -0.0333148 0.865545)
(0.499723 -0.0333148 0.865545)
(0 1 0)
(0 1 0)
(-0.865826 -0.0214237 0.499886)
(-0.865827 -0.0214237 0.499885)
(-0.865827 0.0214236 0.499885)
(0.0333148 0.499723 0.865545)
(0.0333148 0.499723 0.865545)
(0.0333148 0.499722 0.865545)
(0.0333148 0.499723 0.865545)
(-1 0 0)
(-1 0 -0)
(0.0214237 -0.865826 0.499886)
(0.0214237 -0.865827 0.499885)
(-0.0214236 -0.865827 0.499885)
(-0.499723 0.0333148 0.865545)
(-0.499723 0.0333148 0.865545)
(-0.499722 0.0333148 0.865545)
(-0.499723 0.0333148 0.865545)
(0 -1 0)
(0 -1 -0)
(0.865826 0.0214237 0.499886)
(0.865827 0.0214237 0.499885)
(0.865827 -0.0214236 0.499885)
(0.0877537 0.890977 0.445488)
(0 0 -1)
(0.259888 0.856737 0.445488)
(0 0 -1)
(0.422036 0.789573 0.445488)
(0.567964 0.692067 0.445488)
(0 0 -1)
(0.692067 0.567964 0.445488)
(0.789573 0.422036 0.445488)
(0 0 -1)
(0.856737 0.259888 0.445488)
(0.890977 0.0877537 0.445488)
(0 0 -1)
(0.890977 -0.0877537 0.445488)
(0.856737 -0.259888 0.445488)
(0 0 -1)
(0.789573 -0.422036 0.445488)
(0.692067 -0.567964 0.445488)
(0 0 -1)
(0.567964 -0.692067 0.445488)
(0.422036 -0.789573 0.445488)
(0 0 -1)
(0.259888 -0.856737 0.445488)
(0.0877537 -0.890977 0.445488)
(-0 0 -1)
(-0.0877537 -0.890977 0.445488)
(-0.259888 -0.856737 0.445488)
(0 0 -1)
(-0.422036 -0.789573 0.445488)
(-0.567964 -0.692067 0.445488)
(0 0 -1)
(-0.692067 -0.567964 0.445488)
(-0.789573 -0.422036 0.445488)
(0 0 -1)
(-0.856737 -0.259888 0.445488)
(-0.890977 -0.0877537 0.445488)
(0 0 -1)
(-0.890977 0.0877537 0.445488)
(-0.856737 0.259888 0.445488)
(0 0 -1)
(-0.789573 0.422036 0.445488)
(-0.692067 0.567964 0.445488)
(0 0 -1)
(-0.567964 0.692067 0.445488)
(-0.422036 0.789573 0.445488)
(0 0 -1)
(-0.0877537 0.890977 0.445488)
(-0.259888 0.856737 0.445488)
(0.0142843 0.499949 -0.865937)
(-1 0 0)
(-1 0 0)
(-0.499949 0.0142842 -0.865937)
(4.37114e-08 -1 1.04261e-14)
(4.37114e-08 -1 -9.54364e-15)
(-0.0142842 -0.499949 -0.865937)
(1 8.74228e-08 2.08523e-14)
(1 8.74228e-08 -1.90873e-14)
(0.499949 -0.0142842 -0.865937)
(-1.19249e-08 1 -1.63686e-15)
(-1.19249e-08 1 -1.63686e-15)
(0.0142843 0.499949 -0.865937)
(-0.499949 0.0142842 -0.865937)
(-0.0142842 -0.499949 -0.865937)
(0.499949 -0.0142843 -0.865937)
)

// normal volume types

112
(
0
0
0
0
0
0
0
0
0
0
0
0
0
0
0
0
0
0
0
0
0
0
0
0
0
0
0
0
0
0
0
0
0
0
0
0
0
0
0
0
0
0
0
0
0
0
0
0
0
0
0
0
0
0
0
0
0
0
0
0
0
0
0
0
0
0
0
0
0
0
0
0
0
0
0
0
0
0
0
0
0
0
0
0
0
0
0
0
0
0
0
0
0
0
0
0
0
0
0
0
0
0
0
0
0
0
0
0
0
0
0
0
)

// normalDirections

116
(
2(1 -1)
2(1 -1)
2(1 -1)
2(1 -1)
2(1 -1)
2(1 -1)
2(1 -1)
2(1 -1)
2(1 -1)
2(1 -1)
2(1 -1)
2(1 -1)
2(1 -1)
2(1 -1)
2(1 -1)
2(1 -1)
2(1 -1)
2(1 -1)
2(1 -1)
2(1 -1)
2(1 -1)
2(1 -1)
2(1 -1)
2(1 -1)
2(1 -1)
2(1 -1)
2(1 -1)
2(1 -1)
2(1 -1)
2(1 -1)
2(1 -1)
2(1 -1)
2{1}
2(1 -1)
2(1 -1)
2(1 -1)
2{1}
2{1}
2(1 -1)
2(1 -1)
2(1 -1)
2{1}
2{1}
2(1 -1)
2(1 -1)
2(1 -1)
2{1}
2{1}
2(1 -1)
2(1 -1)
2(1 -1)
2{1}
2{1}
2{1}
2(1 -1)
2{1}
2{1}
2{1}
2(1 -1)
2{1}
2{1}
2{1}
2(1 -1)
2{1}
2{1}
2{1}
2(1 -1)
2{1}
1(1)
1(1)
1(1)
1(1)
1(1)
1(1)
1(1)
1(1)
1(1)
1(1)
1(1)
1(1)
1(1)
1(1)
1(1)
1(1)
1(1)
1(1)
1(1)
1(1)
1(1)
1(1)
1(1)
1(1)
1(1)
1(1)
1(1)
1(1)
1(1)
1(1)
1(1)
1(1)
1(1)
1(1)
1(1)
1(1)
1(1)
1(1)
1(1)
1(1)
1(1)
1(1)
1(1)
1(1)
3(1 -1 -1)
3(1 -1 -1)
3(1 -1 -1)
3(1 -1 -1)
)

// edgeNormals

116
(
2(48 49)
2(50 51)
2(52 51)
2(53 54)
2(55 54)
2(56 57)
2(58 57)
2(59 60)
2(61 60)
2(62 63)
2(64 63)
2(65 66)
2(67 66)
2(68 69)
2(70 69)
2(71 72)
2(73 72)
2(74 75)
2(76 75)
2(77 78)
2(79 78)
2(80 81)
2(82 81)
2(83 84)
2(85 84)
2(86 87)
2(88 87)
2(89 90)
2(91 90)
2(92 93)
2(49 94)
2(93 95)
2(96 12)
2(13 16)
2(97 1)
2(98 0)
2(98 19)
2(99 21)
2(22 25)
2(100 4)
2(101 3)
2(101 28)
2(102 30)
2(31 34)
2(103 7)
2(104 6)
2(104 37)
2(105 39)
2(40 43)
2(106 10)
2(107 9)
2(107 46)
2(108 97)
2(108 20)
2(96 18)
2(15 17)
2(109 100)
2(109 29)
2(99 27)
2(24 26)
2(110 103)
2(110 38)
2(102 36)
2(33 35)
2(111 106)
2(111 47)
2(105 45)
2(42 44)
1(12)
1(13)
1(0)
1(2)
1(14)
1(15)
1(16)
1(17)
1(18)
1(19)
1(20)
1(21)
1(22)
1(3)
1(5)
1(23)
1(24)
1(25)
1(26)
1(27)
1(28)
1(29)
1(30)
1(31)
1(6)
1(8)
1(32)
1(33)
1(34)
1(35)
1(36)
1(37)
1(38)
1(39)
1(40)
1(9)
1(11)
1(41)
1(42)
1(43)
1(44)
1(45)
1(46)
1(47)
3(0 1 2)
3(3 4 5)
3(6 7 8)
3(9 10 11)
)

// featurePointNormals

48
(
3(98 19 108)
3(97 1 108)
3(96 12 20)
3(96 12 18)
2(13 16)
2(13 16)
4(97 1 0 2)
3(98 0 19)
4(0 15 20 2)
3(2 14 18)
2(15 17)
2(15 17)
3(101 28 109)
3(100 4 109)
3(99 21 29)
3(99 21 27)
2(22 25)
2(22 25)
4(100 4 3 5)
3(101 3 28)
4(3 24 29 5)
3(5 23 27)
2(24 26)
2(24 26)
3(104 37 110)
3(103 7 110)
3(102 30 38)
3(102 30 36)
2(31 34)
2(31 34)
4(103 7 6 8)
3(104 6 37)
4(6 33 38 8)
3(8 32 36)
2(33 35)
2(33 35)
3(107 46 111)
3(106 10 111)
3(105 39 47)
3(105 39 45)
2(40 43)
2(40 43)
4(106 10 9 11)
3(107 9 46)
4(9 42 47 11)
3(11 41 45)
2(42 44)
2(42 44)
)

// featurePointEdges

48
(
3(54 36 52)
3(52 34 53)
4(53 32 69 78)
4(32 54 68 76)
3(33 68 74)
3(33 69 75)
4(34 35 112 71)
4(35 36 70 77)
4(112 70 73 78)
4(71 72 76 77)
3(55 72 74)
3(55 73 75)
3(58 41 56)
3(56 39 57)
4(57 37 80 89)
4(37 58 79 87)
3(38 79 85)
3(38 80 86)
4(39 40 113 82)
4(40 41 81 88)
4(113 81 84 89)
4(82 83 87 88)
3(59 83 85)
3(59 84 86)
3(62 46 60)
3(60 44 61)
4(61 42 91 100)
4(42 62 90 98)
3(43 90 96)
3(43 91 97)
4(44 45 114 93)
4(45 46 92 99)
4(114 92 95 100)
4(93 94 98 99)
3(63 94 96)
3(63 95 97)
3(66 51 64)
3(64 49 65)
4(65 47 102 111)
4(47 66 101 109)
3(48 101 107)
3(48 102 108)
4(49 50 115 104)
4(50 51 103 110)
4(115 103 106 111)
4(104 105 109 110)
3(67 105 107)
3(67 106 108)
)

// regionEdges

48
(
112
113
114
115
68
69
70
71
72
73
74
75
76
77
78
79
80
81
82
83
84
85
86
87
88
89
90
91
92
93
94
95
96
97
98
99
100
101
102
103
104
105
106
107
108
109
110
111
)



// ************************************************************************* //
