/*--------------------------------*- C++ -*----------------------------------*\
  =========                 |
  \\      /  F ield         | OpenFOAM: The Open Source CFD Toolbox
   \\    /   O peration     | Website:  https://openfoam.org
    \\  /    A nd           | Version:  10
     \\/     M anipulation  |
\*---------------------------------------------------------------------------*/
FoamFile
{
    format      ascii;
    class       featureEdgeMesh;
    location    "constant/triSurface";
    object      propeller.eMesh;
}
// * * * * * * * * * * * * * * * * * * * * * * * * * * * * * * * * * * * * * //


// points:

80
(
(0 -0.129904 0.025)
(0 0.129904 0.175)
(3.5 0.0399519 0.180801)
(3.5 -0.0899519 0.105801)
(5 -0.082476 0.167853)
(5 -0.0175241 0.205353)
(0 0.139904 0.15768)
(0 -0.119904 0.00767948)
(3.5 0.0499519 0.163481)
(3.5 -0.0799519 0.0884808)
(5 -0.072476 0.150532)
(5 -0.00752406 0.188032)
(0.129904 5.67828e-09 0.025)
(-0.129904 -5.67828e-09 0.175)
(-0.0399521 3.5 0.180801)
(0.0899518 3.5 0.105801)
(0.0824757 5 0.167853)
(0.0175238 5 0.205353)
(-0.139904 -6.11539e-09 0.15768)
(0.119904 5.24116e-09 0.00767948)
(-0.0499521 3.5 0.163481)
(0.0799517 3.5 0.0884808)
(0.0724757 5 0.150532)
(0.00752384 5 0.188032)
(-1.13566e-08 0.129904 0.025)
(1.13566e-08 -0.129904 0.175)
(-3.5 -0.0399522 0.180801)
(-3.5 0.0899516 0.105801)
(-5 0.0824755 0.167853)
(-5 0.0175236 0.205353)
(1.22308e-08 -0.139904 0.15768)
(-1.04823e-08 0.119904 0.00767948)
(-3.5 -0.0499522 0.163481)
(-3.5 0.0799516 0.0884808)
(-5 0.0724755 0.150532)
(-5 0.00752362 0.188032)
(-0.129904 -1.54909e-09 0.025)
(0.129904 1.54909e-09 0.175)
(0.0399519 -3.5 0.180801)
(-0.0899519 -3.5 0.105801)
(-0.0824759 -5 0.167853)
(-0.017524 -5 0.205353)
(0.139904 1.66834e-09 0.15768)
(-0.119904 -1.42984e-09 0.00767948)
(0.0499519 -3.5 0.163481)
(-0.0799519 -3.5 0.0884808)
(-0.0724759 -5 0.150532)
(-0.007524 -5 0.188032)
(0.0390181 0.196157 0)
(0 0.2 0)
(0.0765367 0.184776 0)
(0.111114 0.166294 0)
(0.141421 0.141421 0)
(0.166294 0.111114 0)
(0.184776 0.0765367 0)
(0.196157 0.0390181 0)
(0.2 0 0)
(0.196157 -0.0390181 0)
(0.184776 -0.0765367 0)
(0.166294 -0.111114 0)
(0.141421 -0.141421 0)
(0.111114 -0.166294 0)
(0.0765367 -0.184776 0)
(0.0390181 -0.196157 0)
(0 -0.2 0)
(-0.0390181 -0.196157 0)
(-0.0765367 -0.184776 0)
(-0.111114 -0.166294 0)
(-0.141421 -0.141421 0)
(-0.166294 -0.111114 0)
(-0.184776 -0.0765367 0)
(-0.196157 -0.0390181 0)
(-0.2 0 0)
(-0.196157 0.0390181 0)
(-0.184776 0.0765367 0)
(-0.166294 0.111114 0)
(-0.141421 0.141421 0)
(-0.111114 0.166294 0)
(-0.0765367 0.184776 0)
(-0.0390181 0.196157 0)
)


// edges:

116
(
(48 49)
(50 48)
(51 50)
(52 51)
(53 52)
(54 53)
(55 54)
(56 55)
(57 56)
(58 57)
(59 58)
(60 59)
(61 60)
(62 61)
(63 62)
(64 63)
(65 64)
(66 65)
(67 66)
(68 67)
(69 68)
(70 69)
(71 70)
(72 71)
(73 72)
(74 73)
(75 74)
(76 75)
(77 76)
(78 77)
(79 49)
(78 79)
(2 3)
(4 5)
(1 6)
(6 7)
(7 0)
(14 15)
(16 17)
(13 18)
(18 19)
(19 12)
(26 27)
(28 29)
(25 30)
(30 31)
(31 24)
(38 39)
(40 41)
(37 42)
(42 43)
(43 36)
(0 1)
(1 2)
(3 0)
(10 11)
(12 13)
(13 14)
(15 12)
(22 23)
(24 25)
(25 26)
(27 24)
(34 35)
(36 37)
(37 38)
(39 36)
(46 47)
(3 4)
(5 2)
(8 7)
(6 9)
(9 10)
(11 8)
(4 10)
(11 5)
(3 9)
(9 7)
(2 8)
(15 16)
(17 14)
(20 19)
(18 21)
(21 22)
(23 20)
(16 22)
(23 17)
(15 21)
(21 19)
(14 20)
(27 28)
(29 26)
(32 31)
(30 33)
(33 34)
(35 32)
(28 34)
(35 29)
(27 33)
(33 31)
(26 32)
(39 40)
(41 38)
(44 43)
(42 45)
(45 46)
(47 44)
(40 46)
(47 41)
(39 45)
(45 43)
(38 44)
(6 8)
(18 20)
(30 32)
(42 44)
)

// * * * * * * * * * * * * * * * * * * * * * * * * * * * * * * * * * * * * * //


// ************************************************************************* //
