
FoamFile
{
    version     2.0;
    format      ascii;
    class       dictionary;
    object      momentumTransport;
}

// * * * * * * * * * * * * * * * * * * * * * * * * * * * * * * * * * * * * * //

transportModel Newtonian;
nu              nu [ 0 2 -1 0 0 0 0 ] 1e-05;
simulationType RAS;

RAS
{
    model           kEpsilon;
    turbulence      on;
    printCoeffs     on;
}

// ************************************************************************* //
